Version 4
SHEET 1 880 680
WIRE 176 64 64 64
WIRE 320 64 256 64
WIRE 320 128 320 64
WIRE 384 128 320 128
WIRE 64 144 64 64
WIRE 320 160 320 128
WIRE 64 288 64 224
WIRE 320 288 320 224
WIRE 320 288 64 288
WIRE 320 304 320 288
FLAG 320 304 0
FLAG 384 128 Vo
IOPIN 384 128 Out
SYMBOL voltage 64 128 R0
WINDOW 3 -381 101 Left 2
WINDOW 123 0 0 Left 0
WINDOW 39 0 0 Left 0
SYMATTR InstName Vi
SYMATTR Value PULSE(0 5 0 10e-6 10e-6 0.01 0.02)
SYMBOL res 272 48 R90
WINDOW 0 0 56 VBottom 2
WINDOW 3 32 56 VTop 2
SYMATTR InstName R1
SYMATTR Value 2k
SYMBOL cap 304 160 R0
SYMATTR InstName C1
SYMATTR Value 1µ ic=0
TEXT 528 136 Left 2 !.tran 50m
